<?xml version='1.0' encoding='utf-8'?>
<!DOCTYPE population SYSTEM "http://www.matsim.org/files/dtd/population_v5.dtd">

<population desc="Generated MATSim population">
	<person id="passenger_1">
		<plan selected="yes">
			<act type="home" link="121" end_time="06:14:34" />
			<leg mode="car" />
			<act type="work" link="297" end_time="17:00:00" />
			<leg mode="car" />
			<act type="home" link="121" />
		</plan>
	</person>
	<person id="passenger_2">
		<plan selected="yes">
			<act type="home" link="169" end_time="06:22:41" />
			<leg mode="car" />
			<act type="work" link="99" end_time="17:00:00" />
			<leg mode="car" />
			<act type="home" link="169" />
		</plan>
	</person>
	<person id="passenger_3">
		<plan selected="yes">
			<act type="home" link="334" end_time="08:18:21" />
			<leg mode="car" />
			<act type="work" link="321" end_time="17:00:00" />
			<leg mode="car" />
			<act type="home" link="334" />
		</plan>
	</person>
	<person id="passenger_4">
		<plan selected="yes">
			<act type="home" link="181" end_time="08:37:54" />
			<leg mode="car" />
			<act type="work" link="312" end_time="17:00:00" />
			<leg mode="car" />
			<act type="home" link="181" />
		</plan>
	</person>
	<person id="passenger_5">
		<plan selected="yes">
			<act type="home" link="47" end_time="08:17:37" />
			<leg mode="car" />
			<act type="work" link="319" end_time="17:00:00" />
			<leg mode="car" />
			<act type="home" link="47" />
		</plan>
	</person>
	<person id="passenger_6">
		<plan selected="yes">
			<act type="home" link="44" end_time="09:10:59" />
			<leg mode="car" />
			<act type="work" link="73" end_time="17:00:00" />
			<leg mode="car" />
			<act type="home" link="44" />
		</plan>
	</person>
	<person id="passenger_7">
		<plan selected="yes">
			<act type="home" link="146" end_time="09:08:05" />
			<leg mode="car" />
			<act type="work" link="133" end_time="17:00:00" />
			<leg mode="car" />
			<act type="home" link="146" />
		</plan>
	</person>
	<person id="passenger_8">
		<plan selected="yes">
			<act type="home" link="272" end_time="08:49:10" />
			<leg mode="car" />
			<act type="work" link="95" end_time="17:00:00" />
			<leg mode="car" />
			<act type="home" link="272" />
		</plan>
	</person>
	<person id="passenger_9">
		<plan selected="yes">
			<act type="home" link="316" end_time="08:11:09" />
			<leg mode="car" />
			<act type="work" link="96" end_time="17:00:00" />
			<leg mode="car" />
			<act type="home" link="316" />
		</plan>
	</person>
	<person id="passenger_10">
		<plan selected="yes">
			<act type="home" link="200" end_time="08:56:38" />
			<leg mode="car" />
			<act type="work" link="313" end_time="17:00:00" />
			<leg mode="car" />
			<act type="home" link="200" />
		</plan>
	</person>
	<person id="passenger_11">
		<plan selected="yes">
			<act type="home" link="165" end_time="07:14:31" />
			<leg mode="car" />
			<act type="work" link="271" end_time="17:00:00" />
			<leg mode="car" />
			<act type="home" link="165" />
		</plan>
	</person>
	<person id="passenger_12">
		<plan selected="yes">
			<act type="home" link="234" end_time="08:28:44" />
			<leg mode="car" />
			<act type="work" link="332" end_time="17:00:00" />
			<leg mode="car" />
			<act type="home" link="234" />
		</plan>
	</person>
	<person id="passenger_13">
		<plan selected="yes">
			<act type="home" link="313" end_time="08:34:15" />
			<leg mode="car" />
			<act type="work" link="269" end_time="17:00:00" />
			<leg mode="car" />
			<act type="home" link="313" />
		</plan>
	</person>
	<person id="passenger_14">
		<plan selected="yes">
			<act type="home" link="314" end_time="06:49:55" />
			<leg mode="car" />
			<act type="work" link="348" end_time="17:00:00" />
			<leg mode="car" />
			<act type="home" link="314" />
		</plan>
	</person>
	<person id="passenger_15">
		<plan selected="yes">
			<act type="home" link="163" end_time="06:29:51" />
			<leg mode="car" />
			<act type="work" link="210" end_time="17:00:00" />
			<leg mode="car" />
			<act type="home" link="163" />
		</plan>
	</person>
	<person id="passenger_16">
		<plan selected="yes">
			<act type="home" link="299" end_time="07:44:24" />
			<leg mode="car" />
			<act type="work" link="163" end_time="17:00:00" />
			<leg mode="car" />
			<act type="home" link="299" />
		</plan>
	</person>
	<person id="passenger_17">
		<plan selected="yes">
			<act type="home" link="241" end_time="08:14:19" />
			<leg mode="car" />
			<act type="work" link="290" end_time="17:00:00" />
			<leg mode="car" />
			<act type="home" link="241" />
		</plan>
	</person>
	<person id="passenger_18">
		<plan selected="yes">
			<act type="home" link="240" end_time="08:41:16" />
			<leg mode="car" />
			<act type="work" link="255" end_time="17:00:00" />
			<leg mode="car" />
			<act type="home" link="240" />
		</plan>
	</person>
	<person id="passenger_19">
		<plan selected="yes">
			<act type="home" link="137" end_time="06:25:27" />
			<leg mode="car" />
			<act type="work" link="148" end_time="17:00:00" />
			<leg mode="car" />
			<act type="home" link="137" />
		</plan>
	</person>
	<person id="passenger_20">
		<plan selected="yes">
			<act type="home" link="66" end_time="08:11:57" />
			<leg mode="car" />
			<act type="work" link="2" end_time="17:00:00" />
			<leg mode="car" />
			<act type="home" link="66" />
		</plan>
	</person>
	<person id="passenger_21">
		<plan selected="yes">
			<act type="home" link="312" end_time="07:19:37" />
			<leg mode="car" />
			<act type="work" link="304" end_time="17:00:00" />
			<leg mode="car" />
			<act type="home" link="312" />
		</plan>
	</person>
	<person id="passenger_22">
		<plan selected="yes">
			<act type="home" link="316" end_time="07:31:18" />
			<leg mode="car" />
			<act type="work" link="246" end_time="17:00:00" />
			<leg mode="car" />
			<act type="home" link="316" />
		</plan>
	</person>
	<person id="passenger_23">
		<plan selected="yes">
			<act type="home" link="288" end_time="06:57:59" />
			<leg mode="car" />
			<act type="work" link="120" end_time="17:00:00" />
			<leg mode="car" />
			<act type="home" link="288" />
		</plan>
	</person>
	<person id="passenger_24">
		<plan selected="yes">
			<act type="home" link="282" end_time="06:05:52" />
			<leg mode="car" />
			<act type="work" link="78" end_time="17:00:00" />
			<leg mode="car" />
			<act type="home" link="282" />
		</plan>
	</person>
	<person id="passenger_25">
		<plan selected="yes">
			<act type="home" link="68" end_time="07:12:40" />
			<leg mode="car" />
			<act type="work" link="95" end_time="17:00:00" />
			<leg mode="car" />
			<act type="home" link="68" />
		</plan>
	</person>
	<person id="passenger_26">
		<plan selected="yes">
			<act type="home" link="139" end_time="07:19:01" />
			<leg mode="car" />
			<act type="work" link="341" end_time="17:00:00" />
			<leg mode="car" />
			<act type="home" link="139" />
		</plan>
	</person>
	<person id="passenger_27">
		<plan selected="yes">
			<act type="home" link="147" end_time="06:34:04" />
			<leg mode="car" />
			<act type="work" link="349" end_time="17:00:00" />
			<leg mode="car" />
			<act type="home" link="147" />
		</plan>
	</person>
	<person id="passenger_28">
		<plan selected="yes">
			<act type="home" link="87" end_time="09:40:26" />
			<leg mode="car" />
			<act type="work" link="324" end_time="17:00:00" />
			<leg mode="car" />
			<act type="home" link="87" />
		</plan>
	</person>
	<person id="passenger_29">
		<plan selected="yes">
			<act type="home" link="361" end_time="07:40:13" />
			<leg mode="car" />
			<act type="work" link="222" end_time="17:00:00" />
			<leg mode="car" />
			<act type="home" link="361" />
		</plan>
	</person>
	<person id="passenger_30">
		<plan selected="yes">
			<act type="home" link="296" end_time="09:41:38" />
			<leg mode="car" />
			<act type="work" link="219" end_time="17:00:00" />
			<leg mode="car" />
			<act type="home" link="296" />
		</plan>
	</person>
	<person id="passenger_31">
		<plan selected="yes">
			<act type="home" link="290" end_time="07:16:35" />
			<leg mode="car" />
			<act type="work" link="42" end_time="17:00:00" />
			<leg mode="car" />
			<act type="home" link="290" />
		</plan>
	</person>
	<person id="passenger_32">
		<plan selected="yes">
			<act type="home" link="280" end_time="07:09:41" />
			<leg mode="car" />
			<act type="work" link="123" end_time="17:00:00" />
			<leg mode="car" />
			<act type="home" link="280" />
		</plan>
	</person>
	<person id="passenger_33">
		<plan selected="yes">
			<act type="home" link="305" end_time="08:08:41" />
			<leg mode="car" />
			<act type="work" link="248" end_time="17:00:00" />
			<leg mode="car" />
			<act type="home" link="305" />
		</plan>
	</person>
	<person id="passenger_34">
		<plan selected="yes">
			<act type="home" link="192" end_time="07:05:08" />
			<leg mode="car" />
			<act type="work" link="184" end_time="17:00:00" />
			<leg mode="car" />
			<act type="home" link="192" />
		</plan>
	</person>
	<person id="passenger_35">
		<plan selected="yes">
			<act type="home" link="126" end_time="06:07:06" />
			<leg mode="car" />
			<act type="work" link="245" end_time="17:00:00" />
			<leg mode="car" />
			<act type="home" link="126" />
		</plan>
	</person>
	<person id="passenger_36">
		<plan selected="yes">
			<act type="home" link="279" end_time="09:21:03" />
			<leg mode="car" />
			<act type="work" link="320" end_time="17:00:00" />
			<leg mode="car" />
			<act type="home" link="279" />
		</plan>
	</person>
	<person id="passenger_37">
		<plan selected="yes">
			<act type="home" link="295" end_time="09:37:12" />
			<leg mode="car" />
			<act type="work" link="204" end_time="17:00:00" />
			<leg mode="car" />
			<act type="home" link="295" />
		</plan>
	</person>
	<person id="passenger_38">
		<plan selected="yes">
			<act type="home" link="195" end_time="06:37:19" />
			<leg mode="car" />
			<act type="work" link="213" end_time="17:00:00" />
			<leg mode="car" />
			<act type="home" link="195" />
		</plan>
	</person>
	<person id="passenger_39">
		<plan selected="yes">
			<act type="home" link="67" end_time="07:05:35" />
			<leg mode="car" />
			<act type="work" link="115" end_time="17:00:00" />
			<leg mode="car" />
			<act type="home" link="67" />
		</plan>
	</person>
	<person id="passenger_40">
		<plan selected="yes">
			<act type="home" link="267" end_time="06:16:59" />
			<leg mode="car" />
			<act type="work" link="172" end_time="17:00:00" />
			<leg mode="car" />
			<act type="home" link="267" />
		</plan>
	</person>
	<person id="passenger_41">
		<plan selected="yes">
			<act type="home" link="95" end_time="07:48:59" />
			<leg mode="car" />
			<act type="work" link="131" end_time="17:00:00" />
			<leg mode="car" />
			<act type="home" link="95" />
		</plan>
	</person>
	<person id="passenger_42">
		<plan selected="yes">
			<act type="home" link="336" end_time="07:01:11" />
			<leg mode="car" />
			<act type="work" link="314" end_time="17:00:00" />
			<leg mode="car" />
			<act type="home" link="336" />
		</plan>
	</person>
	<person id="passenger_43">
		<plan selected="yes">
			<act type="home" link="115" end_time="06:24:46" />
			<leg mode="car" />
			<act type="work" link="267" end_time="17:00:00" />
			<leg mode="car" />
			<act type="home" link="115" />
		</plan>
	</person>
	<person id="passenger_44">
		<plan selected="yes">
			<act type="home" link="359" end_time="07:27:54" />
			<leg mode="car" />
			<act type="work" link="308" end_time="17:00:00" />
			<leg mode="car" />
			<act type="home" link="359" />
		</plan>
	</person>
	<person id="passenger_45">
		<plan selected="yes">
			<act type="home" link="283" end_time="06:26:11" />
			<leg mode="car" />
			<act type="work" link="309" end_time="17:00:00" />
			<leg mode="car" />
			<act type="home" link="283" />
		</plan>
	</person>
	<person id="passenger_46">
		<plan selected="yes">
			<act type="home" link="57" end_time="09:30:24" />
			<leg mode="car" />
			<act type="work" link="133" end_time="17:00:00" />
			<leg mode="car" />
			<act type="home" link="57" />
		</plan>
	</person>
	<person id="passenger_47">
		<plan selected="yes">
			<act type="home" link="187" end_time="07:30:36" />
			<leg mode="car" />
			<act type="work" link="307" end_time="17:00:00" />
			<leg mode="car" />
			<act type="home" link="187" />
		</plan>
	</person>
	<person id="passenger_48">
		<plan selected="yes">
			<act type="home" link="331" end_time="06:53:05" />
			<leg mode="car" />
			<act type="work" link="281" end_time="17:00:00" />
			<leg mode="car" />
			<act type="home" link="331" />
		</plan>
	</person>
	<person id="passenger_49">
		<plan selected="yes">
			<act type="home" link="116" end_time="06:00:22" />
			<leg mode="car" />
			<act type="work" link="160" end_time="17:00:00" />
			<leg mode="car" />
			<act type="home" link="116" />
		</plan>
	</person>
	<person id="passenger_50">
		<plan selected="yes">
			<act type="home" link="75" end_time="09:13:13" />
			<leg mode="car" />
			<act type="work" link="288" end_time="17:00:00" />
			<leg mode="car" />
			<act type="home" link="75" />
		</plan>
	</person>
	<person id="passenger_51">
		<plan selected="yes">
			<act type="home" link="244" end_time="08:39:41" />
			<leg mode="car" />
			<act type="work" link="95" end_time="17:00:00" />
			<leg mode="car" />
			<act type="home" link="244" />
		</plan>
	</person>
	<person id="passenger_52">
		<plan selected="yes">
			<act type="home" link="302" end_time="06:13:56" />
			<leg mode="car" />
			<act type="work" link="211" end_time="17:00:00" />
			<leg mode="car" />
			<act type="home" link="302" />
		</plan>
	</person>
	<person id="passenger_53">
		<plan selected="yes">
			<act type="home" link="267" end_time="06:18:05" />
			<leg mode="car" />
			<act type="work" link="1" end_time="17:00:00" />
			<leg mode="car" />
			<act type="home" link="267" />
		</plan>
	</person>
	<person id="passenger_54">
		<plan selected="yes">
			<act type="home" link="132" end_time="06:57:12" />
			<leg mode="car" />
			<act type="work" link="325" end_time="17:00:00" />
			<leg mode="car" />
			<act type="home" link="132" />
		</plan>
	</person>
	<person id="passenger_55">
		<plan selected="yes">
			<act type="home" link="141" end_time="08:55:17" />
			<leg mode="car" />
			<act type="work" link="58" end_time="17:00:00" />
			<leg mode="car" />
			<act type="home" link="141" />
		</plan>
	</person>
	<person id="passenger_56">
		<plan selected="yes">
			<act type="home" link="293" end_time="08:59:51" />
			<leg mode="car" />
			<act type="work" link="162" end_time="17:00:00" />
			<leg mode="car" />
			<act type="home" link="293" />
		</plan>
	</person>
	<person id="passenger_57">
		<plan selected="yes">
			<act type="home" link="155" end_time="07:47:38" />
			<leg mode="car" />
			<act type="work" link="267" end_time="17:00:00" />
			<leg mode="car" />
			<act type="home" link="155" />
		</plan>
	</person>
	<person id="passenger_58">
		<plan selected="yes">
			<act type="home" link="340" end_time="06:50:56" />
			<leg mode="car" />
			<act type="work" link="272" end_time="17:00:00" />
			<leg mode="car" />
			<act type="home" link="340" />
		</plan>
	</person>
	<person id="passenger_59">
		<plan selected="yes">
			<act type="home" link="189" end_time="09:36:54" />
			<leg mode="car" />
			<act type="work" link="236" end_time="17:00:00" />
			<leg mode="car" />
			<act type="home" link="189" />
		</plan>
	</person>
	<person id="passenger_60">
		<plan selected="yes">
			<act type="home" link="122" end_time="07:56:10" />
			<leg mode="car" />
			<act type="work" link="313" end_time="17:00:00" />
			<leg mode="car" />
			<act type="home" link="122" />
		</plan>
	</person>
	<person id="passenger_61">
		<plan selected="yes">
			<act type="home" link="183" end_time="06:07:32" />
			<leg mode="car" />
			<act type="work" link="271" end_time="17:00:00" />
			<leg mode="car" />
			<act type="home" link="183" />
		</plan>
	</person>
	<person id="passenger_62">
		<plan selected="yes">
			<act type="home" link="271" end_time="09:33:27" />
			<leg mode="car" />
			<act type="work" link="266" end_time="17:00:00" />
			<leg mode="car" />
			<act type="home" link="271" />
		</plan>
	</person>
	<person id="passenger_63">
		<plan selected="yes">
			<act type="home" link="112" end_time="07:36:40" />
			<leg mode="car" />
			<act type="work" link="121" end_time="17:00:00" />
			<leg mode="car" />
			<act type="home" link="112" />
		</plan>
	</person>
	<person id="passenger_64">
		<plan selected="yes">
			<act type="home" link="188" end_time="06:14:52" />
			<leg mode="car" />
			<act type="work" link="226" end_time="17:00:00" />
			<leg mode="car" />
			<act type="home" link="188" />
		</plan>
	</person>
	<person id="passenger_65">
		<plan selected="yes">
			<act type="home" link="184" end_time="07:46:18" />
			<leg mode="car" />
			<act type="work" link="299" end_time="17:00:00" />
			<leg mode="car" />
			<act type="home" link="184" />
		</plan>
	</person>
	<person id="passenger_66">
		<plan selected="yes">
			<act type="home" link="204" end_time="07:53:11" />
			<leg mode="car" />
			<act type="work" link="201" end_time="17:00:00" />
			<leg mode="car" />
			<act type="home" link="204" />
		</plan>
	</person>
	<person id="passenger_67">
		<plan selected="yes">
			<act type="home" link="291" end_time="08:01:35" />
			<leg mode="car" />
			<act type="work" link="165" end_time="17:00:00" />
			<leg mode="car" />
			<act type="home" link="291" />
		</plan>
	</person>
	<person id="passenger_68">
		<plan selected="yes">
			<act type="home" link="116" end_time="07:25:32" />
			<leg mode="car" />
			<act type="work" link="241" end_time="17:00:00" />
			<leg mode="car" />
			<act type="home" link="116" />
		</plan>
	</person>
	<person id="passenger_69">
		<plan selected="yes">
			<act type="home" link="224" end_time="08:47:23" />
			<leg mode="car" />
			<act type="work" link="204" end_time="17:00:00" />
			<leg mode="car" />
			<act type="home" link="224" />
		</plan>
	</person>
	<person id="passenger_70">
		<plan selected="yes">
			<act type="home" link="262" end_time="06:54:16" />
			<leg mode="car" />
			<act type="work" link="282" end_time="17:00:00" />
			<leg mode="car" />
			<act type="home" link="262" />
		</plan>
	</person>
	<person id="passenger_71">
		<plan selected="yes">
			<act type="home" link="148" end_time="08:18:29" />
			<leg mode="car" />
			<act type="work" link="123" end_time="17:00:00" />
			<leg mode="car" />
			<act type="home" link="148" />
		</plan>
	</person>
	<person id="passenger_72">
		<plan selected="yes">
			<act type="home" link="114" end_time="08:31:35" />
			<leg mode="car" />
			<act type="work" link="160" end_time="17:00:00" />
			<leg mode="car" />
			<act type="home" link="114" />
		</plan>
	</person>
	<person id="passenger_73">
		<plan selected="yes">
			<act type="home" link="2" end_time="09:01:13" />
			<leg mode="car" />
			<act type="work" link="221" end_time="17:00:00" />
			<leg mode="car" />
			<act type="home" link="2" />
		</plan>
	</person>
	<person id="passenger_74">
		<plan selected="yes">
			<act type="home" link="99" end_time="06:48:24" />
			<leg mode="car" />
			<act type="work" link="137" end_time="17:00:00" />
			<leg mode="car" />
			<act type="home" link="99" />
		</plan>
	</person>
	<person id="passenger_75">
		<plan selected="yes">
			<act type="home" link="80" end_time="07:15:26" />
			<leg mode="car" />
			<act type="work" link="155" end_time="17:00:00" />
			<leg mode="car" />
			<act type="home" link="80" />
		</plan>
	</person>
	<person id="passenger_76">
		<plan selected="yes">
			<act type="home" link="318" end_time="08:20:57" />
			<leg mode="car" />
			<act type="work" link="334" end_time="17:00:00" />
			<leg mode="car" />
			<act type="home" link="318" />
		</plan>
	</person>
	<person id="passenger_77">
		<plan selected="yes">
			<act type="home" link="139" end_time="06:15:29" />
			<leg mode="car" />
			<act type="work" link="325" end_time="17:00:00" />
			<leg mode="car" />
			<act type="home" link="139" />
		</plan>
	</person>
	<person id="passenger_78">
		<plan selected="yes">
			<act type="home" link="169" end_time="08:19:04" />
			<leg mode="car" />
			<act type="work" link="332" end_time="17:00:00" />
			<leg mode="car" />
			<act type="home" link="169" />
		</plan>
	</person>
	<person id="passenger_79">
		<plan selected="yes">
			<act type="home" link="313" end_time="08:44:18" />
			<leg mode="car" />
			<act type="work" link="342" end_time="17:00:00" />
			<leg mode="car" />
			<act type="home" link="313" />
		</plan>
	</person>
	<person id="passenger_80">
		<plan selected="yes">
			<act type="home" link="145" end_time="07:37:17" />
			<leg mode="car" />
			<act type="work" link="142" end_time="17:00:00" />
			<leg mode="car" />
			<act type="home" link="145" />
		</plan>
	</person>
	<person id="passenger_81">
		<plan selected="yes">
			<act type="home" link="212" end_time="06:34:13" />
			<leg mode="car" />
			<act type="work" link="248" end_time="17:00:00" />
			<leg mode="car" />
			<act type="home" link="212" />
		</plan>
	</person>
	<person id="passenger_82">
		<plan selected="yes">
			<act type="home" link="263" end_time="08:18:16" />
			<leg mode="car" />
			<act type="work" link="229" end_time="17:00:00" />
			<leg mode="car" />
			<act type="home" link="263" />
		</plan>
	</person>
	<person id="passenger_83">
		<plan selected="yes">
			<act type="home" link="120" end_time="06:55:42" />
			<leg mode="car" />
			<act type="work" link="127" end_time="17:00:00" />
			<leg mode="car" />
			<act type="home" link="120" />
		</plan>
	</person>
	<person id="passenger_84">
		<plan selected="yes">
			<act type="home" link="179" end_time="08:59:09" />
			<leg mode="car" />
			<act type="work" link="298" end_time="17:00:00" />
			<leg mode="car" />
			<act type="home" link="179" />
		</plan>
	</person>
	<person id="passenger_85">
		<plan selected="yes">
			<act type="home" link="289" end_time="07:51:36" />
			<leg mode="car" />
			<act type="work" link="304" end_time="17:00:00" />
			<leg mode="car" />
			<act type="home" link="289" />
		</plan>
	</person>
	<person id="passenger_86">
		<plan selected="yes">
			<act type="home" link="129" end_time="08:45:50" />
			<leg mode="car" />
			<act type="work" link="249" end_time="17:00:00" />
			<leg mode="car" />
			<act type="home" link="129" />
		</plan>
	</person>
	<person id="passenger_87">
		<plan selected="yes">
			<act type="home" link="175" end_time="06:55:19" />
			<leg mode="car" />
			<act type="work" link="318" end_time="17:00:00" />
			<leg mode="car" />
			<act type="home" link="175" />
		</plan>
	</person>
	<person id="passenger_88">
		<plan selected="yes">
			<act type="home" link="144" end_time="09:46:22" />
			<leg mode="car" />
			<act type="work" link="274" end_time="17:00:00" />
			<leg mode="car" />
			<act type="home" link="144" />
		</plan>
	</person>
	<person id="passenger_89">
		<plan selected="yes">
			<act type="home" link="121" end_time="06:04:18" />
			<leg mode="car" />
			<act type="work" link="47" end_time="17:00:00" />
			<leg mode="car" />
			<act type="home" link="121" />
		</plan>
	</person>
	<person id="passenger_90">
		<plan selected="yes">
			<act type="home" link="332" end_time="08:37:27" />
			<leg mode="car" />
			<act type="work" link="136" end_time="17:00:00" />
			<leg mode="car" />
			<act type="home" link="332" />
		</plan>
	</person>
	<person id="passenger_91">
		<plan selected="yes">
			<act type="home" link="115" end_time="07:30:18" />
			<leg mode="car" />
			<act type="work" link="127" end_time="17:00:00" />
			<leg mode="car" />
			<act type="home" link="115" />
		</plan>
	</person>
	<person id="passenger_92">
		<plan selected="yes">
			<act type="home" link="67" end_time="08:24:31" />
			<leg mode="car" />
			<act type="work" link="236" end_time="17:00:00" />
			<leg mode="car" />
			<act type="home" link="67" />
		</plan>
	</person>
	<person id="passenger_93">
		<plan selected="yes">
			<act type="home" link="171" end_time="08:51:17" />
			<leg mode="car" />
			<act type="work" link="271" end_time="17:00:00" />
			<leg mode="car" />
			<act type="home" link="171" />
		</plan>
	</person>
	<person id="passenger_94">
		<plan selected="yes">
			<act type="home" link="253" end_time="07:32:11" />
			<leg mode="car" />
			<act type="work" link="154" end_time="17:00:00" />
			<leg mode="car" />
			<act type="home" link="253" />
		</plan>
	</person>
	<person id="passenger_95">
		<plan selected="yes">
			<act type="home" link="146" end_time="07:49:01" />
			<leg mode="car" />
			<act type="work" link="125" end_time="17:00:00" />
			<leg mode="car" />
			<act type="home" link="146" />
		</plan>
	</person>
	<person id="passenger_96">
		<plan selected="yes">
			<act type="home" link="130" end_time="07:30:53" />
			<leg mode="car" />
			<act type="work" link="140" end_time="17:00:00" />
			<leg mode="car" />
			<act type="home" link="130" />
		</plan>
	</person>
	<person id="passenger_97">
		<plan selected="yes">
			<act type="home" link="183" end_time="07:04:27" />
			<leg mode="car" />
			<act type="work" link="252" end_time="17:00:00" />
			<leg mode="car" />
			<act type="home" link="183" />
		</plan>
	</person>
	<person id="passenger_98">
		<plan selected="yes">
			<act type="home" link="358" end_time="07:04:05" />
			<leg mode="car" />
			<act type="work" link="74" end_time="17:00:00" />
			<leg mode="car" />
			<act type="home" link="358" />
		</plan>
	</person>
	<person id="passenger_99">
		<plan selected="yes">
			<act type="home" link="199" end_time="06:54:28" />
			<leg mode="car" />
			<act type="work" link="320" end_time="17:00:00" />
			<leg mode="car" />
			<act type="home" link="199" />
		</plan>
	</person>
	<person id="passenger_100">
		<plan selected="yes">
			<act type="home" link="201" end_time="09:07:37" />
			<leg mode="car" />
			<act type="work" link="124" end_time="17:00:00" />
			<leg mode="car" />
			<act type="home" link="201" />
		</plan>
	</person>
	<person id="passenger_101">
		<plan selected="yes">
			<act type="home" link="176" end_time="06:17:00" />
			<leg mode="car" />
			<act type="work" link="312" end_time="17:00:00" />
			<leg mode="car" />
			<act type="home" link="176" />
		</plan>
	</person>
	<person id="passenger_102">
		<plan selected="yes">
			<act type="home" link="158" end_time="07:00:25" />
			<leg mode="car" />
			<act type="work" link="286" end_time="17:00:00" />
			<leg mode="car" />
			<act type="home" link="158" />
		</plan>
	</person>
	<person id="passenger_103">
		<plan selected="yes">
			<act type="home" link="294" end_time="06:09:23" />
			<leg mode="car" />
			<act type="work" link="142" end_time="17:00:00" />
			<leg mode="car" />
			<act type="home" link="294" />
		</plan>
	</person>
	<person id="passenger_104">
		<plan selected="yes">
			<act type="home" link="243" end_time="08:15:05" />
			<leg mode="car" />
			<act type="work" link="301" end_time="17:00:00" />
			<leg mode="car" />
			<act type="home" link="243" />
		</plan>
	</person>
	<person id="passenger_105">
		<plan selected="yes">
			<act type="home" link="188" end_time="07:52:20" />
			<leg mode="car" />
			<act type="work" link="294" end_time="17:00:00" />
			<leg mode="car" />
			<act type="home" link="188" />
		</plan>
	</person>
	<person id="passenger_106">
		<plan selected="yes">
			<act type="home" link="159" end_time="07:42:16" />
			<leg mode="car" />
			<act type="work" link="324" end_time="17:00:00" />
			<leg mode="car" />
			<act type="home" link="159" />
		</plan>
	</person>
	<person id="passenger_107">
		<plan selected="yes">
			<act type="home" link="83" end_time="08:25:07" />
			<leg mode="car" />
			<act type="work" link="121" end_time="17:00:00" />
			<leg mode="car" />
			<act type="home" link="83" />
		</plan>
	</person>
	<person id="passenger_108">
		<plan selected="yes">
			<act type="home" link="323" end_time="08:01:34" />
			<leg mode="car" />
			<act type="work" link="65" end_time="17:00:00" />
			<leg mode="car" />
			<act type="home" link="323" />
		</plan>
	</person>
	<person id="passenger_109">
		<plan selected="yes">
			<act type="home" link="73" end_time="07:50:26" />
			<leg mode="car" />
			<act type="work" link="271" end_time="17:00:00" />
			<leg mode="car" />
			<act type="home" link="73" />
		</plan>
	</person>
	<person id="passenger_110">
		<plan selected="yes">
			<act type="home" link="71" end_time="07:35:29" />
			<leg mode="car" />
			<act type="work" link="250" end_time="17:00:00" />
			<leg mode="car" />
			<act type="home" link="71" />
		</plan>
	</person>
	<person id="passenger_111">
		<plan selected="yes">
			<act type="home" link="287" end_time="06:19:09" />
			<leg mode="car" />
			<act type="work" link="207" end_time="17:00:00" />
			<leg mode="car" />
			<act type="home" link="287" />
		</plan>
	</person>
	<person id="passenger_112">
		<plan selected="yes">
			<act type="home" link="71" end_time="07:30:49" />